/*--------------------------------*- C++ -*----------------------------------*\
| =========                 |                                                 |
| \\      /  F ield         | OpenFOAM: The Open Source CFD Toolbox           |
|  \\    /   O peration     | Version:  v1912                                 |
|   \\  /    A nd           | Website:  www.OpenFOAM.com                      |
|    \\/     M anipulation  |                                                 |
\*---------------------------------------------------------------------------*/
FoamFile
{
    version     2.0;
    format      ascii;
    class       dictionary;
    location    "system";
    object      fvSolution;
}
// * * * * * * * * * * * * * * * * * * * * * * * * * * * * * * * * * * * * * //

solvers
{
    U
    {
        solver          smoothSolver;
        smoother        GaussSeidel;
        tolerance       1e-8;
        relTol          0.01;
    }

    p
    {
        solver          GAMG;
        smoother        GaussSeidel;
        tolerance       1e-9;
        relTol          0.01;
    }

    "(k|omega|epsilon)"
    {
        solver          smoothSolver;
        smoother        GaussSeidel;
        tolerance       1e-8;
        relTol          0.01;
    }
}

SIMPLE
{
    nNonOrthogonalCorrectors 1;
    pRefCell        0;
    pRefValue       0;
}

relaxationFactors
{
    fields
    {
        p       0.3;
    }
    equations
    {
        U       0.7;
        "(k|omega|epsilon)"  0.7;
    }
}

// ************************************************************************* //
