/*--------------------------------*- C++ -*----------------------------------*\
| =========                 |                                                 |
| \\      /  F ield         | OpenFOAM: The Open Source CFD Toolbox           |
|  \\    /   O peration     | Version:  2.3.x                                 |
|   \\  /    A nd           | Web:      www.OpenFOAM.org                      |
|    \\/     M anipulation  |                                                 |
\*---------------------------------------------------------------------------*/
FoamFile
{
    version     2.0;
    format      ascii;
    class       polyBoundaryMesh;
    location    "constant/polyMesh";
    object      boundary;
}
// * * * * * * * * * * * * * * * * * * * * * * * * * * * * * * * * * * * * * //

6
(
    topWall
    {
        type            symmetryPlane;
        inGroups        1(symmetryPlane);
        nFaces          50;
        startFace       4900;
    }
    bottomWall
    {
        type            wall;
        inGroups        1(wall);
        nFaces          50;
        startFace       4950;
    }
    inlet
    {
        type            cyclic;
        inGroups        1(cyclic);
        nFaces          2500;
        startFace       5000;
        matchTolerance  0.0001;
        transform       unknown;
        neighbourPatch  outlet;
    }
    outlet
    {
        type            cyclic;
        inGroups        1(cyclic);
        nFaces          2500;
        startFace       7500;
        matchTolerance  0.0001;
        transform       unknown;
        neighbourPatch  inlet;
    }
    left
    {
        type            wall;
        inGroups        1(wall);
        nFaces          50;
        startFace       10000;
    }
    right
    {
        type            symmetryPlane;
        inGroups        1(symmetryPlane);
        nFaces          50;
        startFace       10050;
    }
)

// ************************************************************************* //
