/*--------------------------------*- C++ -*----------------------------------*\
| =========                 |                                                 |
| \\      /  F ield         | foam-extend: Open Source CFD                    |
|  \\    /   O peration     | Version:     3.1                                |
|   \\  /    A nd           | Web:         http://www.extend-project.de       |
|    \\/     M anipulation  |                                                 |
\*---------------------------------------------------------------------------*/
FoamFile
{
    version     2.0;
    format      ascii;
    class       dictionary;
    location    system;
    object      sampleDict;
}
// * * * * * * * * * * * * * * * * * * * * * * * * * * * * * * * * * * * * //

type surfaces;
libs ("libsampling.so");

setFormat raw;
surfaceFormat raw;
interpolationScheme cellPoint;

fields
(
    p
);

surfaces
(
    walls_interpolated
    {
        type            patch;
        patches         ( "walls" );
        //interpolate     true;
        // Optional: whether to leave as faces (=default) or triangulate
        // triangulate     false;
        }
);

// *********************************************************************** //
