/*--------------------------------*- C++ -*----------------------------------*\
| =========                 |                                                 |
| \\      /  F ield         | OpenFOAM: The Open Source CFD Toolbox           |
|  \\    /   O peration     | Version:  v1912                                 |
|   \\  /    A nd           | Website:  www.openfoam.com                      |
|    \\/     M anipulation  |                                                 |
\*---------------------------------------------------------------------------*/
FoamFile
{
    version     2.0;
    format      ascii;
    class       dictionary;
    location    "system";
    object      controlDict;
}

// * * * * * * * * * * * * * * * * * * * * * * * * * * * * * * * * * * * * * //

application      simpleFoam;
startFrom        latestTime;
startTime        0;
stopAt           nextWrite;
endTime          50;
deltaT           0.002;
writeControl     runTime;
writeInterval    1;
purgeWrite       2;
writeFormat      ascii;
writePrecision   6;
writeCompression off;
timeFormat       fixed;
timePrecision    0;
runTimeModifiable true;

// * * * * * * * * * * * * * * * * * * * * * * * * * * * * * * * * * * * * * //